*SPEF "1481-1998"
*DESIGN "pit_top"
*DATE "Tue Oct  2 05:33:42 2018"
*VENDOR "Synopsys, Inc."
*PROGRAM "icc_shell"
*VERSION "G-2012.06-ICC-SP2"
*DESIGN_FLOW "PIN_CAP NONE"
*DIVIDER /
*DELIMITER :
*BUS_DELIMITER [ ]
*T_UNIT 1 NS
*C_UNIT 1 FF
*R_UNIT 1 OHM
*L_UNIT 1 HENRY

*NAME_MAP
*1 wb_dat_o[0]
*2 wb_dat_o[8]
*3 wb_dat_o[7]
*4 wb_dat_o[6]
*5 wb_dat_o[5]
*6 wb_dat_o[4]
*7 wb_dat_o[3]
*8 wb_dat_o[2]
*9 wb_dat_o[1]
*10 wb_adr_i[0]
*11 wb_dat_o[15]
*12 wb_dat_o[14]
*13 wb_dat_o[13]
*14 wb_dat_o[12]
*15 wb_dat_o[11]
*16 wb_dat_o[10]
*17 wb_dat_o[9]
*18 wb_dat_i[5]
*19 wb_dat_i[4]
*20 wb_dat_i[3]
*21 wb_dat_i[2]
*22 wb_dat_i[1]
*23 wb_dat_i[0]
*24 wb_adr_i[2]
*25 wb_adr_i[1]
*26 wb_dat_i[13]
*27 wb_dat_i[12]
*28 wb_dat_i[11]
*29 wb_dat_i[10]
*30 wb_dat_i[9]
*31 wb_dat_i[8]
*32 wb_dat_i[7]
*33 wb_dat_i[6]
*34 wb_we_i
*35 arst_i
*36 wb_rst_i
*37 wb_clk_i
*38 wb_sel_i[1]
*39 wb_sel_i[0]
*40 wb_dat_i[15]
*41 wb_dat_i[14]
*42 cnt_sync_o
*43 cnt_flag_o
*44 pit_irq_o
*45 pit_o
*46 wb_ack_o
*47 ext_sync_i
*48 wb_cyc_i
*49 wb_stb_i
*50 U414
*51 n274
*52 U343
*53 wishbone_addr_latch_reg_0_
*54 n76
*55 U413
*56 U412
*57 U341
*58 U340
*59 U49
*60 n7
*61 wishbone_address_1_
*62 U276
*63 U275
*64 wishbone_addr_latch_reg_1_
*65 n6
*66 wishbone_address_2_
*67 wishbone_addr_latch_reg_2_
*68 n5
*69 U411
*70 n10
*71 U90
*72 U410
*73 n11
*74 U91
*75 U409
*76 n12
*77 U92
*78 U408
*79 n17
*80 U97
*81 U407
*82 n18
*83 U98
*84 U406
*85 n19
*86 U99
*87 U405
*88 n20
*89 U100
*90 U404
*91 n21
*92 U101
*93 mod_value\[1\]
*94 U403
*95 regs_mod_value_reg_1_
*96 n383
*97 U402
*98 U342
*99 U2
*100 n382
*101 U344
*102 U1
*103 pit_ien
*104 regs_pit_ien_reg
*105 n384
*106 U260
*107 mod_value\[14\]
*108 regs_mod_value_reg_14_
*109 n378
*110 U209
*111 pit_flg_clr
*112 U401
*113 regs_pit_flg_clr_reg
*114 n75
*115 U234
*116 counter_cnt_flag_o_reg
*117 U68
*118 n96
*119 U346
*120 U339
*121 U123
*122 n181
*123 cnt_n\[14\]
*124 U400
*125 U360
*126 U305
*127 U304
*128 counter_cnt_n_reg_14_
*129 n377
*130 U233
*131 U4
*132 U380
*133 U378
*134 U375
*135 U373
*136 U370
*137 U368
*138 U362
*139 U398
*140 U395
*141 U393
*142 U390
*143 U388
*144 U385
*145 U383
*146 n376
*147 U399
*148 n375
*149 U361
*150 n97
*151 n373
*152 U379
*153 U377
*154 U374
*155 U372
*156 U369
*157 U273
*158 U5
*159 U397
*160 U394
*161 U392
*162 U389
*163 U387
*164 U384
*165 U382
*166 n265
*167 n374
*168 U396
*169 n372
*170 U258
*171 n371
*172 n100
*173 counter_cnt_n_reg_13_
*174 n385
*175 U359
*176 U263
*177 n370
*178 U358
*179 n369
*180 cnt_n\[12\]
*181 counter_cnt_n_reg_12_
*182 n368
*183 n101
*184 n267
*185 U267
*186 n367
*187 U391
*188 n366
*189 n102
*190 counter_cnt_n_reg_11_
*191 n264
*192 U357
*193 U270
*194 n365
*195 U356
*196 n364
*197 cnt_n\[10\]
*198 U309
*199 U308
*200 counter_cnt_n_reg_10_
*201 n363
*202 n103
*203 n270
*204 U271
*205 n362
*206 U386
*207 n361
*208 n104
*209 counter_cnt_n_reg_9_
*210 n262
*211 U355
*212 U259
*213 n360
*214 U354
*215 n359
*216 cnt_n\[8\]
*217 counter_cnt_n_reg_8_
*218 n358
*219 n105
*220 n271
*221 U257
*222 n357
*223 U381
*224 n356
*225 n106
*226 counter_cnt_n_reg_7_
*227 n379
*228 U353
*229 U265
*230 n355
*231 U352
*232 n354
*233 cnt_n\[6\]
*234 U299
*235 U298
*236 counter_cnt_n_reg_6_
*237 n353
*238 n107
*239 n268
*240 U266
*241 n352
*242 U376
*243 n351
*244 n108
*245 counter_cnt_n_reg_5_
*246 n380
*247 U351
*248 U261
*249 n350
*250 U350
*251 n349
*252 cnt_n\[4\]
*253 U297
*254 U296
*255 counter_cnt_n_reg_4_
*256 n348
*257 n109
*258 n269
*259 U262
*260 n347
*261 U371
*262 n346
*263 n110
*264 counter_cnt_n_reg_3_
*265 n381
*266 U349
*267 U264
*268 n345
*269 U348
*270 n344
*271 cnt_n\[2\]
*272 U303
*273 counter_cnt_n_reg_2_
*274 n343
*275 n111
*276 n263
*277 n342
*278 U366
*279 n341
*280 U367
*281 n112
*282 counter_cnt_n_reg_1_
*283 n339
*284 n266
*285 n340
*286 U365
*287 U364
*288 cnt_n\[0\]
*289 U307
*290 U306
*291 counter_cnt_n_reg_0_
*292 cnt_n\[1\]
*293 U301
*294 U300
*295 n113
*296 cnt_n\[15\]
*297 U302
*298 counter_cnt_n_reg_15_
*299 n336
*300 n116
*301 n334
*302 U345
*303 n333
*304 U295
*305 n403
*306 U184
*307 n124
*308 U116
*309 U115
*310 n121
*311 U106
*312 n276
*313 wishbone_bus_wait_state_reg
*314 n335
*315 U338
*316 n331
*317 U313
*318 n332
*319 U290
*320 n330
*321 U323
*322 U315
*323 n239
*324 U277
*325 U269
*326 regs_pit_slave_reg
*327 U107
*328 n324
*329 U337
*330 U331
*331 n323
*332 U336
*333 n325
*334 U322
*335 U321
*336 n257
*337 U248
*338 prescale_cnt_n_reg_4_
*339 n326
*340 U238
*341 U185
*342 n321
*343 U335
*344 prescale_cnt_n_14_
*345 U241
*346 prescale_cnt_n_reg_14_
*347 n54
*348 U333
*349 U318
*350 U288
*351 U206
*352 regs_pit_pre_reg_3_
*353 U108
*354 n322
*355 prescale_cnt_n_11_
*356 U253
*357 prescale_cnt_n_reg_11_
*358 prescale_cnt_n_12_
*359 U187
*360 prescale_cnt_n_reg_12_
*361 n319
*362 U334
*363 n320
*364 U332
*365 prescale_cnt_n_1_
*366 U221
*367 U204
*368 prescale_cnt_n_reg_1_
*369 n318
*370 n73
*371 prescale_cnt_n_reg_13_
*372 prescale_cnt_n_4_
*373 n317
*374 U316
*375 U190
*376 n52
*377 regs_pit_pre_reg_1_
*378 U110
*379 n314
*380 U330
*381 n316
*382 U328
*383 prescale_cnt_n_2_
*384 prescale_cnt_n_reg_2_
*385 prescale_cnt_n_5_
*386 prescale_cnt_n_reg_5_
*387 n315
*388 U329
*389 n279
*390 U324
*391 U319
*392 U289
*393 n312
*394 U317
*395 n313
*396 U272
*397 n49
*398 regs_pit_pre_reg_0_
*399 U111
*400 n310
*401 U192
*402 pit_pre_scl\[1\]
*403 n311
*404 U314
*405 n308
*406 U327
*407 n307
*408 U326
*409 n309
*410 prescale_cnt_n_13_
*411 U240
*412 n327
*413 n305
*414 U325
*415 prescale_cnt_n_10_
*416 U252
*417 prescale_cnt_n_reg_10_
*418 n306
*419 n280
*420 U287
*421 prescale_cnt_n_7_
*422 prescale_cnt_n_reg_7_
*423 n247
*424 U239
*425 U191
*426 prescale_cnt_n_0_
*427 prescale_cnt_n_reg_0_
*428 n277
*429 U320
*430 U286
*431 prescale_cnt_n_8_
*432 prescale_cnt_n_reg_8_
*433 prescale_cnt_n_9_
*434 prescale_cnt_n_reg_9_
*435 n303
*436 n302
*437 n53
*438 regs_pit_pre_reg_2_
*439 U109
*440 pit_pre_scl\[3\]
*441 pit_pre_scl\[2\]
*442 pit_pre_scl\[0\]
*443 n301
*444 n300
*445 n299
*446 n298
*447 U312
*448 n297
*449 n296
*450 n295
*451 n294
*452 U311
*453 n293
*454 U310
*455 n68
*456 U294
*457 U93
*458 regs_mod_value_reg_11_
*459 cnt_n\[11\]
*460 cnt_n\[9\]
*461 n66
*462 regs_mod_value_reg_9_
*463 U95
*464 n292
*465 n67
*466 U94
*467 regs_mod_value_reg_10_
*468 n65
*469 regs_mod_value_reg_8_
*470 U96
*471 n291
*472 n70
*473 U291
*474 regs_mod_value_reg_13_
*475 cnt_n\[13\]
*476 n56
*477 U268
*478 U104
*479 regs_mod_value_reg_0_
*480 n290
*481 n71
*482 n69
*483 regs_mod_value_reg_12_
*484 n289
*485 mod_value\[2\]
*486 regs_mod_value_reg_2_
*487 n59
*488 U292
*489 U102
*490 n288
*491 mod_value\[15\]
*492 regs_mod_value_reg_15_
*493 n272
*494 n72
*495 U89
*496 n287
*497 n60
*498 regs_mod_value_reg_3_
*499 cnt_n\[3\]
*500 n57
*501 U103
*502 n286
*503 n64
*504 regs_mod_value_reg_7_
*505 cnt_n\[7\]
*506 n63
*507 regs_mod_value_reg_6_
*508 n285
*509 n62
*510 regs_mod_value_reg_5_
*511 cnt_n\[5\]
*512 n61
*513 regs_mod_value_reg_4_
*514 n284
*515 n283
*516 n282
*517 n281
*518 U293
*519 mod_value\[6\]
*520 mod_value\[7\]
*521 mod_value\[8\]
*522 mod_value\[9\]
*523 n246
*524 U212
*525 n304
*526 n328
*527 U285
*528 n24
*529 U112
*530 U284
*531 n9
*532 U283
*533 n13
*534 U282
*535 n14
*536 U281
*537 n15
*538 U280
*539 n23
*540 U113
*541 U279
*542 n16
*543 U278
*544 n22
*545 regs_cnt_sync_o_reg
*546 n275
*547 U210
*548 U196
*549 n43
*550 n273
*551 n386
*552 n394
*553 U231
*554 n393
*555 U229
*556 n390
*557 U227
*558 n47
*559 n387
*560 n402
*561 U225
*562 n392
*563 U213
*564 n397
*565 U214
*566 n396
*567 U219
*568 n400
*569 U217
*570 n391
*571 U218
*572 n399
*573 U220
*574 n398
*575 U216
*576 n401
*577 U215
*578 n395
*579 U223
*580 n261
*581 U256
*582 U207
*583 U205
*584 prescale_N45
*585 DP_OP_56J2_124_736_n6
*586 U255
*587 U237
*588 DP_OP_56J2_124_736_U7
*589 DP_OP_56J2_124_736_n20
*590 U243
*591 U242
*592 U199
*593 n251
*594 DP_OP_56J2_124_736_U5
*595 DP_OP_56J2_124_736_n18
*596 U200
*597 U186
*598 DP_OP_56J2_124_736_n19
*599 n253
*600 U251
*601 DP_OP_56J2_124_736_n21
*602 n254
*603 U250
*604 DP_OP_56J2_124_736_n22
*605 DP_OP_56J2_124_736_U8
*606 n255
*607 U249
*608 prescale_cnt_n_reg_6_
*609 DP_OP_56J2_124_736_n23
*610 DP_OP_56J2_124_736_U9
*611 DP_OP_56J2_124_736_n25
*612 DP_OP_56J2_124_736_U11
*613 n248
*614 U247
*615 U246
*616 U201
*617 U3
*618 n258
*619 prescale_cnt_n_reg_3_
*620 DP_OP_56J2_124_736_n26
*621 DP_OP_56J2_124_736_U12
*622 n259
*623 DP_OP_56J2_124_736_n27
*624 DP_OP_56J2_124_736_U13
*625 DP_OP_56J2_124_736_n1
*626 U245
*627 DP_OP_56J2_124_736_U2
*628 n249
*629 prescale_N59
*630 n252
*631 n245
*632 prescale_N54
*633 DP_OP_56J2_124_736_n16
*634 n329
*635 U194
*636 n26
*637 U236
*638 n243
*639 U198
*640 n241
*641 U235
*642 U211
*643 n238
*644 DP_OP_56J2_124_736_n13
*645 n236
*646 U232
*647 n234
*648 U230
*649 n232
*650 U228
*651 n230
*652 U226
*653 n228
*654 U224
*655 n240
*656 U197
*657 n244
*658 pit_slave
*659 n242
*660 n218
*661 prescale_N46
*662 DP_OP_56J2_124_736_n10
*663 U203
*664 U202
*665 n217
*666 DP_OP_56J2_124_736_n9
*667 prescale_N50
*668 n256
*669 n216
*670 prescale_N56
*671 n215
*672 n214
*673 n212
*674 U193
*675 n209
*676 prescale_cnt_n_3_
*677 prescale_cnt_n_6_
*678 n211
*679 n210
*680 n207
*681 U189
*682 U188
*683 n208
*684 DP_OP_56J2_124_736_n2
*685 prescale_N57
*686 DP_OP_56J2_124_736_n4
*687 regs_pit_irq_o_reg
*688 counter_pit_o_reg
*689 CLKBUF_X1_G1B1I3
*690 CLKBUF_X1_G1B1I2
*691 CLKBUF_X1_G1B1I4
*692 CLKBUF_X1_G1B1I5
*693 CLKBUF_X1_G1B1I6
*694 CLKBUF_X1_G1B1I8
*695 CLKBUF_X1_G1B1I9
*696 CLKBUF_X1_G1B1I7
*697 CLKBUF_X1_G1B1I1
*698 prescale_N58
*699 n196
*700 n189
*701 n188
*702 n182
*703 n195
*704 n191
*705 n190
*706 n183
*707 prescale_N49
*708 n203
*709 n202
*710 n201
*711 n200
*712 n199
*713 n198
*714 n204
*715 n46
*716 n205
*717 n45
*718 wishbone_N20
*719 wishbone_bus_wait_state
*720 prescale_N55
*721 prescale_N53
*722 prescale_N52
*723 prescale_N51
*724 counter_N45
*725 prescale_N48
*726 prescale_N47
*727 regs_N89
*728 U11
*729 n8
*730 U105
*731 U114
*732 DP_OP_56J2_124_736_n7
*733 DP_OP_56J2_124_736_n8
*734 DP_OP_56J2_124_736_n11
*735 DP_OP_56J2_124_736_n12
*736 n119
*737 n120
*738 n122
*739 n123
*740 n197
*741 n194
*742 n193
*743 n192
*744 n187
*745 n186
*746 n185
*747 n184
*748 n1
*749 n2
*750 n3
*751 n4
*752 n25
*753 wb_clk_i_G1B3I1
*754 wb_clk_i_G1B3I2
*755 wb_clk_i_G1B3I3
*756 wb_clk_i_G1B3I4
*757 wb_clk_i_G1B3I5
*758 wb_clk_i_G1B3I6
*759 wb_clk_i_G1B3I7
*760 wb_clk_i_G1B3I8
*761 wb_clk_i_G1B3I9

*PORTS
*1 O *L 50000.0 *S 0.0 0.0
*2 O *L 50000.0 *S 0.0 0.0
*3 O *L 50000.0 *S 0.0 0.0
*4 O *L 50000.0 *S 0.0 0.0
*5 O *L 50000.0 *S 0.0 0.0
*6 O *L 50000.0 *S 0.0 0.0
*7 O *L 50000.0 *S 0.0 0.0
*8 O *L 50000.0 *S 0.0 0.0
*9 O *L 50000.0 *S 0.0 0.0
*10 I *L 0.0 *S 0.0 0.0
*11 O *L 50000.0 *S 0.0 0.0
*12 O *L 50000.0 *S 0.0 0.0
*13 O *L 50000.0 *S 0.0 0.0
*14 O *L 50000.0 *S 0.0 0.0
*15 O *L 50000.0 *S 0.0 0.0
*16 O *L 50000.0 *S 0.0 0.0
*17 O *L 50000.0 *S 0.0 0.0
*18 I *L 0.0 *S 0.0 0.0
*19 I *L 0.0 *S 0.0 0.0
*20 I *L 0.0 *S 0.0 0.0
*21 I *L 0.0 *S 0.0 0.0
*22 I *L 0.0 *S 0.0 0.0
*23 I *L 0.0 *S 0.0 0.0
*24 I *L 0.0 *S 0.0 0.0
*25 I *L 0.0 *S 0.0 0.0
*26 I *L 0.0 *S 0.0 0.0
*27 I *L 0.0 *S 0.0 0.0
*28 I *L 0.0 *S 0.0 0.0
*29 I *L 0.0 *S 0.0 0.0
*30 I *L 0.0 *S 0.0 0.0
*31 I *L 0.0 *S 0.0 0.0
*32 I *L 0.0 *S 0.0 0.0
*33 I *L 0.0 *S 0.0 0.0
*34 I *L 0.0 *S 0.0 0.0
*35 I *L 0.0 *S 0.0 0.0
*36 I *L 0.0 *S 0.0 0.0
*37 I *L 0.0 *S 0.0 0.0
*38 I *L 0.0 *S 0.0 0.0
*39 I *L 0.0 *S 0.0 0.0
*40 I *L 0.0 *S 0.0 0.0
*41 I *L 0.0 *S 0.0 0.0
*42 O *L 50000.0 *S 0.0 0.0
*43 O *L 50000.0 *S 0.0 0.0
*44 O *L 50000.0 *S 0.0 0.0
*45 O *L 50000.0 *S 0.0 0.0
*46 O *L 50000.0 *S 0.0 0.0
*47 I *L 0.0 *S 0.0 0.0
*48 I *L 0.0 *S 0.0 0.0
*49 I *L 0.0 *S 0.0 0.0

*D_NET *10 0.559667

*CONN
*I *50:A I *L 901.546 *C 34.16 30.16
*P *10 I *C 38.455 26.94
*N *10:3 *C 34.92 28.157
*N *10:4 *C 34.92 28.157
*N *10:5 *C 34.92 30.057
*N *10:6 *C 34.92 30.057
*N *10:7 *C 33.97 30.057
*N *10:8 *C 33.97 30.057
*N *10:9 *C 34.16 30.16
*N *10:10 *C 34.16 30.16
*N *10:11 *C 38.455 28.08

*CAP
1 *50:A 0.0
2 *10 0.02743196
3 *10:3 0.1026134
4 *10:4 0.07540455
5 *10:5 0.0493018
6 *10:6 0.07540455
7 *10:7 0.0493018
8 *10:8 0.02023664
9 *10:9 0.02480635
10 *10:10 0.002962421
11 *10:11 0.1322035

*RES
1 *10:3 *10:4 2.5
2 *10:5 *10:6 2.5
3 *10:7 *10:8 2.5
4 *10:9 *50:A 5.964498
5 *10:8 *10:9 0.5535715
6 *10:9 *10:10 0.125
7 *10:4 *10:6 7.839286
8 *10:7 *10:5 2.892857
9 *10:3 *10:11 12.5
10 *10 *10:11 3.821428

*END

*D_NET *51 0.6267068

*CONN
*I *50:B I *L 893.842 *C 34.681 30.23
*I *52:A3 I *L 1503.944 *C 32.332 28.987
*I *53:Q O *L 0.0 *D DFF_X1 *C 32.382 31.312
*N *51:4 *C 32.337 30.74
*N *51:5 *C 32.337 30.74
*N *51:6 *C 32.45 28.97
*N *51:7 *C 32.45 28.97
*N *51:8 *C 32.45 31.577
*N *51:9 *C 32.45 31.577
*N *51:10 *C 32.382 31.312
*N *51:11 *C 34.681 30.23
*N *51:12 *C 34.54 30.817
*N *51:13 *C 34.54 30.817
*N *51:14 *C 32.26 29.18
*N *51:15 *C 32.45 29.18
*N *51:16 *C 32.415 31.304
*N *51:17 *C 32.383 31.246
*N *51:18 *C 32.416 31.347
*N *51:19 *C 34.54 30.3
*N *51:20 *C 34.681 30.3
*N *51:21 *C 32.64 30.74
*N *51:22 *C 32.64 31.5

*CAP
1 *50:B 0.0
2 *52:A3 0.01512693
3 *53:Q 0.0
4 *51:4 0.01335366
5 *51:5 0.0562856
6 *51:6 0.01328603
7 *51:7 0.01402512
8 *51:8 0.0167841
9 *51:9 0.02366934
10 *51:10 0.03755253
11 *51:11 0.01163669
12 *51:12 0.06806657
13 *51:13 0.0205405
14 *51:14 0.0672769
15 *51:15 0.02322095
16 *51:16 0.02719324
17 *51:17 0.01056129
18 *51:18 0.02475032
19 *51:19 0.02631687
20 *51:20 0.009120329
21 *51:21 0.1073671
22 *51:22 0.0405728

*RES
1 *51:4 *51:5 2.5
2 *52:A3 *51:7 0.2502439
3 *51:6 *51:7 2.982249
4 *51:8 *51:9 2.5
5 *51:10 *53:Q 2.982249
6 *51:11 *50:B 2.982249
7 *51:12 *51:13 2.5
8 *51:14 *51:15 0.9285714
9 *51:14 *51:5 5.196428
10 *51:10 *51:17 0.4874999
11 *51:17 *51:16 0.4874999
12 *51:16 *51:10 0.3071429
13 *51:10 *51:18 0.4910714
14 *51:18 *51:9 0.046
15 *51:16 *51:18 0.4874999
16 *51:10 *51:9 0.9464287
17 *51:6 *51:15 1.116071
18 *51:19 *51:13 2.5
19 *51:19 *51:11 0.3803571
20 *51:11 *51:20 0.125
21 *51:4 *51:21 1.607143
22 *51:21 *51:12 6.535714
23 *51:8 *51:22 0.5535715
24 *51:21 *51:22 2.464286

*END

*D_NET *54 4.332642

*CONN
*I *50:S I *L 1838.589 *C 34.262 30.402
*I *55:S I *L 1838.589 *C 33.975 34.502
*I *56:S I *L 1838.589 *C 32.27 30.25
*I *57:A1 I *L 1573.208 *C 4.452 23.387
*I *58:ZN O *L 0.0 *D NAND2_X1 *C 3.655 23.747
*I *59:A3 I *L 1503.944 *C 4.782 26.187
*N *54:7 *C 4.97 26.24
*N *54:8 *C 4.97 26.24
*N *54:9 *C 33.975 34.502
*N *54:10 *C 4.07 23.72
*N *54:11 *C 4.07 23.72
*N *54:12 *C 33.9 36.46
*N *54:13 *C 33.9 36.46
*N *54:14 *C 5.4 36.46
*N *54:15 *C 5.4 36.46
*N *54:16 *C 32.95 30.335
*N *54:17 *C 32.95 30.335
*N *54:18 *C 33.02 30.437
*N *54:19 *C 33.97 30.437
*N *54:20 *C 33.97 30.437
*N *54:21 *C 34.262 30.402
*N *54:22 *C 4.157 23.58
*N *54:23 *C 4.157 23.464
*N *54:24 *C 16.11 36.46
*N *54:25 *C 16.11 36.6
*N *54:26 *C 22.19 36.6
*N *54:27 *C 22.19 36.46
*N *54:28 *C 4.14 24.84
*N *54:29 *C 4.9 24.84
*N *54:30 *C 4.71 26.56
*N *54:31 *C 4.9 26.56
*N *54:32 *C 4.71 33.24
*N *54:33 *C 5.47 33.24
*N *54:34 *C 34.35 30.36

*CAP
1 *50:S 0.0
2 *55:S 0.0
3 *56:S 0.02972302
4 *57:A1 0.009024307
5 *58:ZN 0.02226332
6 *59:A3 0.01511421
7 *54:7 0.05408105
8 *54:8 0.01401239
9 *54:9 0.2405924
10 *54:10 0.034226
11 *54:11 0.02289814
12 *54:12 0.07127372
13 *54:13 0.5143211
14 *54:14 0.08292524
15 *54:15 0.4505726
16 *54:16 0.01791728
17 *54:17 0.0286212
18 *54:18 0.07422706
19 *54:19 0.05415158
20 *54:20 0.1756343
21 *54:21 0.0106147
22 *54:22 0.05329465
23 *54:23 0.01605567
24 *54:24 0.4588672
25 *54:25 0.333853
26 *54:26 0.3306782
27 *54:27 0.5194409
28 *54:28 0.06278361
29 *54:29 0.0631823
30 *54:30 0.2070825
31 *54:31 0.0286759
32 *54:32 0.2235634
33 *54:33 0.1097276
34 *54:34 0.003242678

*RES
1 *59:A3 *54:8 1.607692
2 *54:7 *54:8 2.982249
3 *54:9 *55:S 2.982249
4 *54:10 *54:11 2.982249
5 *54:12 *54:13 2.982249
6 *54:14 *54:15 2.982249
7 *54:16 *54:17 2.982249
8 *54:18 *54:16 2.5
9 *54:19 *54:20 2.5
10 *54:21 *50:S 2.982249
11 *58:ZN *54:22 2.820769
12 *54:23 *54:22 0.5624002
13 *54:22 *54:11 0.6284615
14 *54:23 *57:A1 1.066923
15 *54:15 *54:24 63.60615
16 *54:24 *54:25 0.8184616
17 *54:25 *54:26 35.54462
18 *54:27 *54:13 69.45232
19 *54:27 *54:26 0.4384615
20 *56:S *54:17 1.110769
21 *54:10 *54:28 3.883929
22 *54:28 *54:29 2.714286
23 *54:30 *54:31 0.9285714
24 *54:30 *54:32 23.85714
25 *54:32 *54:33 2.714286
26 *54:29 *54:7 4.875
27 *54:7 *54:31 1.017857
28 *54:33 *54:14 11.13393
29 *54:20 *54:21 0.919643
30 *54:21 *54:34 0.125
31 *54:20 *54:9 14.31714
32 *54:9 *54:12 6.75
33 *54:18 *54:19 2.892857

*END

*D_NET *60 0.1275699

*CONN
*I *50:Z O *L 0.0 *D MUX2_X1 *C 34.967 30.72
*I *53:D I *L 1079.946 *C 34.575 31.772
*N *60:3 *C 34.967 30.72
*N *60:4 *C 34.575 31.772
*N *60:5 *C 34.635 31.772
*N *60:6 *C 34.73 31.772
*N *60:7 *C 34.73 30.72
*N *60:8 *C 34.967 30.72

*CAP
1 *50:Z 0.0
2 *53:D 0.0
3 *60:3 0.01194935
4 *60:4 0.03763927
5 *60:5 0.01514964
6 *60:6 0.01527064
7 *60:7 0.04436861
8 *60:8 0.003192439

*RES
1 *60:3 *50:Z 2.982249
2 *60:4 *53:D 2.982249
3 *60:4 *60:5 0.25
4 *60:5 *60:6 0.25
5 *60:7 *60:3 0.9732143
6 *60:3 *60:8 0.125
7 *60:7 *60:4 3.633929
8 *60:4 *60:6 0.25

*END

*D_NET *25 1.358647

*CONN
*I *55:A I *L 901.546 *C 34.16 34.64
*P *25 I *C 38.455 23.9
*N *25:3 *C 34.35 23.977
*N *25:4 *C 34.35 23.977
*N *25:5 *C 34.35 28.537
*N *25:6 *C 34.35 28.537
*N *25:7 *C 35.032 28.46
*N *25:8 *C 35.032 28.46
*N *25:9 *C 35.187 31.12
*N *25:10 *C 35.187 31.12
*N *25:11 *C 34.16 31.197
*N *25:12 *C 34.16 31.197
*N *25:13 *C 34.16 34.64
*N *25:14 *C 34.73 23.9
*N *25:15 *C 34.73 23.52
*N *25:16 *C 36.06 23.52
*N *25:17 *C 36.06 23.9

*CAP
1 *55:A 0.0
2 *25 0.05793223
3 *25:3 0.02053235
4 *25:4 0.209808
5 *25:5 0.03569253
6 *25:6 0.209808
7 *25:7 0.1129129
8 *25:8 0.03548948
9 *25:9 0.1129129
10 *25:10 0.04778511
11 *25:11 0.04798816
12 *25:12 0.1346767
13 *25:13 0.136284
14 *25:14 0.03480403
15 *25:15 0.04831414
16 *25:16 0.0459874
17 *25:17 0.067719

*RES
1 *25:3 *25:4 2.5
2 *25:5 *25:6 2.5
3 *25:7 *25:8 2.5
4 *25:9 *25:10 2.5
5 *25:11 *25:12 2.5
6 *25:13 *55:A 5.964498
7 *25:12 *25:13 13.0625
8 *25:4 *25:6 17.33928
9 *25:11 *25:10 3.946429
10 *25:3 *25:14 1.232143
11 *25:5 *25:8 2.714286
12 *25:15 *25:14 1.357143
13 *25:15 *25:16 4.75
14 *25:16 *25:17 1.357143
15 *25:17 *25 8.303573
16 *25:7 *25:9 3.99

*END

*D_NET *61 0.9064094

*CONN
*I *55:B I *L 893.842 *C 33.651 34.5
*I *52:A1 I *L 1605.524 *C 31.957 28.987
*I *62:A2 I *L 1547.576 *C 31.382 28.83
*I *63:A1 I *L 1523.549 *C 31.003 30.16
*I *64:Q O *L 0.0 *D DFF_X1 *C 32.353 34.5
*N *61:6 *C 31.003 30.16
*N *61:7 *C 31.5 34.617
*N *61:8 *C 31.5 34.617
*N *61:9 *C 31.96 28.415
*N *61:10 *C 31.96 28.415
*N *61:11 *C 33.651 34.5
*N *61:12 *C 33.78 34.997
*N *61:13 *C 33.78 34.997
*N *61:14 *C 31.382 28.83
*N *61:15 *C 32.353 34.5
*N *61:16 *C 32.26 34.462
*N *61:17 *C 30.93 29.22
*N *61:18 *C 31.31 29.22
*N *61:19 *C 30.93 32.68
*N *61:20 *C 31.5 32.68
*N *61:21 *C 31.31 28.48
*N *61:22 *C 31.345 28.743
*N *61:23 *C 31.345 28.95
*N *61:24 *C 33.78 34.5
*N *61:25 *C 32.26 34.92

*CAP
1 *55:B 0.0
2 *52:A1 0.03991593
3 *62:A2 0.01442622
4 *63:A1 0.0
5 *64:Q 0.0
6 *61:6 0.1054309
7 *61:7 0.02749831
8 *61:8 0.0550537
9 *61:9 0.03015007
10 *61:10 0.03881412
11 *61:11 0.007732291
12 *61:12 0.04650214
13 *61:13 0.02324464
14 *61:14 0.02370213
15 *61:15 0.01665883
16 *61:16 0.0594407
17 *61:17 0.04582755
18 *61:18 0.02767828
19 *61:19 0.09700333
20 *61:20 0.07661188
21 *61:21 0.03462995
22 *61:22 0.01196946
23 *61:23 0.02864738
24 *61:24 0.03368603
25 *61:25 0.0617857

*RES
1 *61:6 *63:A1 2.982249
2 *61:7 *61:8 2.5
3 *61:9 *61:10 2.982249
4 *61:11 *55:B 5.964498
5 *61:12 *61:13 2.5
6 *61:14 *62:A2 2.982249
7 *61:15 *64:Q 2.982249
8 *61:16 *61:15 2.5
9 *61:10 *52:A1 2.645385
10 *61:17 *61:18 1.607143
11 *61:17 *61:6 3.232143
12 *61:6 *61:19 9.125001
13 *61:19 *61:20 2.035714
14 *61:21 *61:22 0.8839285
15 *61:21 *61:9 1.830357
16 *61:22 *61:23 1e-07
17 *61:23 *61:14 0.125
18 *61:23 *61:18 0.7767858
19 *61:20 *61:8 7.321428
20 *61:11 *61:24 0.825
21 *61:24 *61:13 2.178572
22 *61:7 *61:16 2.464286
23 *61:16 *61:25 1.482143
24 *61:25 *61:12 5.053571

*END

*D_NET *65 0.39512

*CONN
*I *55:Z O *L 0.0 *D MUX2_X1 *C 33.21 34.22
*I *64:D I *L 1079.946 *C 30.137 34.537
*N *65:3 *C 30.137 34.537
*N *65:4 *C 30.36 34.997
*N *65:5 *C 30.36 34.997
*N *65:6 *C 32.07 34.997
*N *65:7 *C 32.07 34.997
*N *65:8 *C 33.21 34.22
*N *65:9 *C 30.36 34.64
*N *65:10 *C 32.07 34.22

*CAP
1 *55:Z 0.01925831
2 *64:D 0.0
3 *65:3 0.01720328
4 *65:4 0.07051583
5 *65:5 0.01271881
6 *65:6 0.07051583
7 *65:7 0.02926516
8 *65:8 0.06514779
9 *65:9 0.03318211
10 *65:10 0.07731283

*RES
1 *65:3 *64:D 2.982249
2 *65:4 *65:5 2.5
3 *65:6 *65:7 2.5
4 *65:8 *55:Z 2.982249
5 *65:3 *65:9 0.5535715
6 *65:9 *65:5 1.678572
7 *65:10 *65:8 3.830357
8 *65:10 *65:7 3.178572
9 *65:4 *65:6 5.607143

*END

*D_NET *24 1.448394

*CONN
*I *56:A I *L 901.546 *C 32.45 30.16
*P *24 I *C 38.455 20.86
*N *24:3 *C 34.807 20.86
*N *24:4 *C 34.807 20.86
*N *24:5 *C 34.807 23.14
*N *24:6 *C 34.807 23.14
*N *24:7 *C 32.26 23.442
*N *24:8 *C 32.26 23.442
*N *24:9 *C 32.717 26.56
*N *24:10 *C 32.717 26.56
*N *24:11 *C 33.78 27.397
*N *24:12 *C 33.78 27.397
*N *24:13 *C 32.45 30.16
*N *24:14 *C 32.26 25.12
*N *24:15 *C 32.64 25.12
*N *24:16 *C 32.45 29.74
*N *24:17 *C 33.78 29.74
*N *24:18 *C 32.26 23.14
*N *24:19 *C 32.26 26.56
*N *24:20 *C 32.26 27.32

*CAP
1 *56:A 0.0
2 *24 0.1062378
3 *24:3 0.1431771
4 *24:4 0.1038766
5 *24:5 0.1431771
6 *24:6 0.07723364
7 *24:7 0.01774847
8 *24:8 0.05986639
9 *24:9 0.01970566
10 *24:10 0.06190761
11 *24:11 0.06163299
12 *24:12 0.06758562
13 *24:13 0.01564373
14 *24:14 0.07581446
15 *24:15 0.07785566
16 *24:16 0.06684499
17 *24:17 0.1203942
18 *24:18 0.09950156
19 *24:19 0.04413147
20 *24:20 0.0860588

*RES
1 *24:3 *24:4 2.5
2 *24:5 *24:6 2.5
3 *24:7 *24:8 2.5
4 *24:9 *24:10 2.5
5 *24:11 *24:12 2.5
6 *24:13 *56:A 5.964498
7 *24:8 *24:14 6.642858
8 *24:14 *24:15 1.357143
9 *24:16 *24:17 5.0
10 *24:16 *24:13 1.616072
11 *24:15 *24:10 4.767857
12 *24:12 *24:17 8.767858
13 *24:18 *24:6 9.75
14 *24:18 *24:7 0.5535715
15 *24:19 *24:9 2.285714
16 *24:19 *24:20 2.714286
17 *24:20 *24:11 5.053571
18 *24:4 *24 13.42857
19 *24:3 *24:5 3.42

*END

*D_NET *66 0.7470355

*CONN
*I *56:B I *L 893.842 *C 31.92 30.23
*I *52:A2 I *L 1547.576 *C 32.137 28.987
*I *62:A3 I *L 1503.944 *C 31.572 28.917
*I *67:Q O *L 0.0 *D DFF_X1 *C 32.138 32.05
*N *66:5 *C 31.572 28.917
*N *66:6 *C 31.957 30.74
*N *66:7 *C 31.957 30.74
*N *66:8 *C 31.92 30.23
*N *66:9 *C 32.142 28.69
*N *66:10 *C 32.142 28.69
*N *66:11 *C 31.387 30.74
*N *66:12 *C 31.387 30.74
*N *66:13 *C 31.387 28.84
*N *66:14 *C 31.387 28.84
*N *66:15 *C 32.138 32.05
*N *66:16 *C 31.31 30.817
*N *66:17 *C 31.31 31.98
*N *66:18 *C 32.138 31.98
*N *66:19 *C 32.07 28.816
*N *66:20 *C 31.88 30.316
*N *66:21 *C 31.92 30.316

*CAP
1 *56:B 0.0
2 *52:A2 0.01790198
3 *62:A3 0.0
4 *67:Q 0.0
5 *66:5 0.0447579
6 *66:6 0.04290807
7 *66:7 0.02783844
8 *66:8 0.007317437
9 *66:9 0.01726646
10 *66:10 0.01680017
11 *66:11 0.1279727
12 *66:12 0.04290807
13 *66:13 0.1279727
14 *66:14 0.009928292
15 *66:15 0.0318241
16 *66:16 0.05247063
17 *66:17 0.07964353
18 *66:18 0.007911199
19 *66:19 0.05319789
20 *66:20 0.03229419
21 *66:21 0.006121696

*RES
1 *66:5 *62:A3 2.982249
2 *66:6 *66:7 2.5
3 *66:8 *56:B 2.982249
4 *66:9 *66:10 2.982249
5 *66:11 *66:12 2.5
6 *66:13 *66:14 2.5
7 *66:14 *66:5 2.5
8 *66:15 *67:Q 2.982249
9 *66:12 *66:16 2.5
10 *66:10 *52:A2 2.031539
11 *66:16 *66:17 3.875
12 *66:17 *66:15 2.832143
13 *66:15 *66:18 0.125
14 *66:5 *66:19 1.511071
15 *66:20 *66:8 0.25
16 *66:8 *66:21 0.1249275
17 *66:20 *66:7 1.446429
18 *66:19 *66:9 0.1248781
19 *66:12 *66:6 2.424285
20 *66:13 *66:11 2.85

*END

*D_NET *68 0.349131

*CONN
*I *56:Z O *L 0.0 *D MUX2_X1 *C 31.596 30.02
*I *67:D I *L 1079.946 *C 29.947 31.837
*N *68:3 *C 31.596 30.02
*N *68:4 *C 31.5 29.902
*N *68:5 *C 29.98 31.197
*N *68:6 *C 29.98 31.197
*N *68:7 *C 29.947 31.837
*N *68:8 *C 31.12 31.12
*N *68:9 *C 31.12 29.98

*CAP
1 *56:Z 0.0
2 *67:D 0.0
3 *68:3 0.01884398
4 *68:4 0.04311426
5 *68:5 0.04967758
6 *68:6 0.04178045
7 *68:7 0.04283683
8 *68:8 0.0902217
9 *68:9 0.06265618

*RES
1 *68:3 *56:Z 2.982249
2 *68:4 *68:3 2.5
3 *68:5 *68:6 2.5
4 *68:7 *67:D 2.982249
5 *68:6 *68:7 2.571429
6 *68:5 *68:8 3.946429
7 *68:9 *68:4 1.357143
8 *68:9 *68:8 3.821429

*END

*D_NET *41 0.4181079

*CONN
*I *69:A I *L 1571.473 *C 11.092 33.012
*P *41 I *C 10.98 38.165
*N *41:3 *C 10.97 33.105
*N *41:4 *C 10.97 33.105

*CAP
1 *69:A 0.02294083
2 *41 0.1872149
3 *41:3 0.1861131
4 *41:4 0.02183901

*RES
1 *41:3 *41:4 2.982249
2 *41:4 *69:A 0.008341462
3 *41:3 *41 17.58036

*END

*D_NET *70 0.6356725

*CONN
*I *69:ZN O *L 0.0 *D INV_X1 *C 11.272 33.31
*I *71:B2 I *L 1524.815 *C 18.322 33.012
*N *70:3 *C 17.26 32.965
*N *70:4 *C 17.26 32.965
*N *70:5 *C 11.272 33.31
*N *70:6 *C 11.272 33.4
*N *70:7 *C 17.25 33.477
*N *70:8 *C 17.25 33.477
*N *70:9 *C 17.255 33.067

*CAP
1 *69:ZN 0.0
2 *71:B2 0.0662602
3 *70:3 0.007288697
4 *70:4 0.06515839
5 *70:5 0.02078327
6 *70:6 0.2185885
7 *70:7 0.195647
8 *70:8 0.02569887
9 *70:9 0.03624758

*RES
1 *70:3 *70:4 2.982249
2 *70:5 *69:ZN 2.982249
3 *70:6 *70:5 2.5
4 *70:7 *70:8 2.5
5 *70:4 *71:B2 5.451539
6 *70:3 *70:9 0.125
7 *70:9 *70:8 2.116071
8 *70:6 *70:7 21.625

*END

*D_NET *26 0.689791

*CONN
*I *72:A I *L 1571.473 *C 17.376 34.57
*P *26 I *C 14.21 38.165
*N *26:3 *C 14.14 37.44
*N *26:4 *C 14.14 37.44
*N *26:5 *C 17.37 37.44
*N *26:6 *C 17.37 37.44
*N *26:7 *C 17.376 34.57

*CAP
1 *72:A 0.0
2 *26 0.03038648
3 *26:3 0.02928467
4 *26:4 0.2141187
5 *26:5 0.1009412
6 *26:6 0.2141187
7 *26:7 0.1009412

*RES
1 *26:3 *26:4 2.982249
2 *26:5 *26:6 2.982249
3 *26:7 *72:A 2.982249
4 *26:4 *26:6 20.49077
5 *26:3 *26 2.223215
6 *26:7 *26:5 9.642858

*END

*D_NET *73 0.6842515

*CONN
*I *72:ZN O *L 0.0 *D INV_X1 *C 17.527 34.5
*I *74:B2 I *L 1524.815 *C 19.825 31.63
*N *73:3 *C 19.825 31.63
*N *73:4 *C 18.38 34.43
*N *73:5 *C 18.38 34.43
*N *73:6 *C 18.39 33.477
*N *73:7 *C 18.39 33.477
*N *73:8 *C 20.48 33.477
*N *73:9 *C 20.48 33.477
*N *73:10 *C 20.48 31.957
*N *73:11 *C 20.48 31.957
*N *73:12 *C 19.72 31.957
*N *73:13 *C 19.72 31.957
*N *73:14 *C 18.385 34.395
*N *73:15 *C 19.772 31.63
*N *73:16 *C 19.72 31.63

*CAP
1 *72:ZN 0.05283118
2 *74:B2 0.01423604
3 *73:3 0.02139743
4 *73:4 0.04706896
5 *73:5 0.05172936
6 *73:6 0.08989478
7 *73:7 0.03689087
8 *73:8 0.08989478
9 *73:9 0.06555625
10 *73:10 0.04662537
11 *73:11 0.06555625
12 *73:12 0.04662537
13 *73:13 0.0117555
14 *73:14 0.0091217
15 *73:15 0.01415765
16 *73:16 0.02090995

*RES
1 *73:3 *74:B2 2.982249
2 *73:4 *73:5 2.982249
3 *73:6 *73:7 2.5
4 *73:8 *73:9 2.5
5 *73:10 *73:11 2.5
6 *73:12 *73:13 2.5
7 *72:ZN *73:5 4.311539
8 *73:4 *73:14 0.05072464
9 *73:7 *73:4 3.5
10 *73:3 *73:15 0.125
11 *73:15 *73:16 0.5
12 *73:16 *73:13 1.419643
13 *73:11 *73:9 6.482143
14 *73:6 *73:8 6.964286
15 *73:12 *73:10 2.214286

*END

*D_NET *27 0.3961537

*CONN
*I *75:A I *L 1571.473 *C 16.751 34.64
*P *27 I *C 17.63 38.165
*N *27:3 *C 17.37 37.86
*N *27:4 *C 17.37 37.86
*N *27:5 *C 16.61 37.86
*N *27:6 *C 16.61 37.86
*N *27:7 *C 16.751 34.64
*N *27:8 *C 16.68 34.64
*N *27:9 *C 17.44 38.14

*CAP
1 *75:A 0.0
2 *27 0.003494321
3 *27:3 0.01792724
4 *27:4 0.06845092
5 *27:5 0.1041356
6 *27:6 0.06845092
7 *27:7 0.002691546
8 *27:8 0.1084798
9 *27:9 0.02252338

*RES
1 *27:3 *27:4 2.982249
2 *27:5 *27:6 2.982249
3 *27:7 *75:A 5.964498
4 *27:6 *27:4 6.05077
5 *27:8 *27:7 0.125
6 *27:8 *27:5 11.38393
7 *27:3 *27:9 0.8839285
8 *27:9 *27 0.4285714

*END

*D_NET *76 0.3553052

*CONN
*I *75:ZN O *L 0.0 *D INV_X1 *C 16.592 34.5
*I *77:B2 I *L 1524.815 *C 15.662 33.012
*N *76:3 *C 15.54 33.1
*N *76:4 *C 15.54 33.1
*N *76:5 *C 15.54 33.857
*N *76:6 *C 15.54 33.857
*N *76:7 *C 16.68 33.857
*N *76:8 *C 16.68 33.857
*N *76:9 *C 16.75 34.36
*N *76:10 *C 16.75 34.36

*CAP
1 *75:ZN 0.0160143
2 *77:B2 0.01546034
3 *76:3 0.05390295
4 *76:4 0.01435853
5 *76:5 0.05806231
6 *76:6 0.05284657
7 *76:7 0.05806231
8 *76:8 0.0353145
9 *76:9 0.03637088
10 *76:10 0.01491248

*RES
1 *77:B2 *76:4 0.2502439
2 *76:3 *76:4 2.982249
3 *76:5 *76:6 2.5
4 *76:7 *76:8 2.5
5 *75:ZN *76:10 1.607693
6 *76:9 *76:10 2.982249
7 *76:3 *76:6 3.723214
8 *76:8 *76:9 2.080357
9 *76:5 *76:7 3.571428

*END

*D_NET *32 0.3969665

*CONN
*I *78:A I *L 1571.473 *C 32.737 34.57
*P *32 I *C 34.16 38.037
*N *32:3 *C 34.16 38.037
*N *32:4 *C 33.59 38.037
*N *32:5 *C 33.59 38.037
*N *32:6 *C 32.737 34.57
*N *32:7 *C 32.737 34.64
*N *32:8 *C 33.59 34.64

*CAP
1 *78:A 0.0
2 *32 0.01063057
3 *32:3 0.0488217
4 *32:4 0.03603293
5 *32:5 0.1132848
6 *32:6 0.006809384
7 *32:7 0.03692769
8 *32:8 0.1444594

*RES
1 *32:3 *32 2.5
2 *32:4 *32:5 2.5
3 *32:6 *78:A 2.982249
4 *32:6 *32:7 0.125
5 *32:7 *32:8 3.294643
6 *32:8 *32:5 12.53571
7 *32:4 *32:3 1.535714

*END

*D_NET *79 1.61727

*CONN
*I *78:ZN O *L 0.0 *D INV_X1 *C 32.587 34.85
*I *80:B2 I *L 1524.815 *C 24.157 28.987
*N *79:3 *C 32.587 34.85
*N *79:4 *C 33.33 36.04
*N *79:5 *C 33.33 36.04
*N *79:6 *C 24.97 36.04
*N *79:7 *C 24.97 36.04
*N *79:8 *C 25.3 28.9
*N *79:9 *C 25.3 28.9
*N *79:10 *C 24.28 28.898
*N *79:11 *C 24.85 32.82
*N *79:12 *C 25.23 32.82
*N *79:13 *C 24.85 34.36
*N *79:14 *C 25.04 34.36
*N *79:15 *C 32.587 34.92
*N *79:16 *C 33.4 34.92

*CAP
1 *78:ZN 0.0
2 *80:B2 0.004214147
3 *79:3 0.006809384
4 *79:4 0.0448152
5 *79:5 0.443601
6 *79:6 0.0471659
7 *79:7 0.443601
8 *79:8 0.1127553
9 *79:9 0.0521923
10 *79:10 0.05750826
11 *79:11 0.05925568
12 *79:12 0.1311778
13 *79:13 0.04924814
14 *79:14 0.05558091
15 *79:15 0.03566952
16 *79:16 0.07367533

*RES
1 *79:3 *78:ZN 2.982249
2 *79:4 *79:5 2.982249
3 *79:6 *79:7 2.982249
4 *79:8 *79:9 2.982249
5 *80:B2 *79:10 0.5169119
6 *79:10 *79:9 6.576924
7 *79:7 *79:5 50.48154
8 *79:11 *79:12 1.607143
9 *79:11 *79:13 5.5
10 *79:13 *79:14 0.6785715
11 *79:14 *79:6 5.633928
12 *79:8 *79:12 13.63393
13 *79:3 *79:15 0.125
14 *79:15 *79:16 3.151786
15 *79:16 *79:4 3.633929

*END

*D_NET *33 0.419549

*CONN